
No compatibility mode selected!


Circuit: * `ngspice` sim input for `__main__.tb`

Doing analysis at TEMP = 27.000000 and TNOM = 27.000000

Warning: toxe, toxp and dtox all given and toxe != toxp + dtox; dtox ignored.

Checking parameters for BSIM 4.5 model nmos
Warning: ckappas = 0.01 is too small.
Warning: ckappad = 0.01 is too small.
Warning: toxe, toxp and dtox all given and toxe != toxp + dtox; dtox ignored.

No. of Data Rows : 1
	Node                                  Voltage
	----                                  -------
	----	-------
	m.xtop.xinst.mmp1#sbody          1.200000e+00
	m.xtop.xinst.mmp1#body           1.200000e+00
	m.xtop.xinst.mmp1#dbody          1.200000e+00
	m.xtop.xinst.mmp1#gate           1.016754e+00
	m.xtop.xinst.mmp2#sbody          1.200000e+00
	m.xtop.xinst.mmp2#body           1.200000e+00
	m.xtop.xinst.mmp2#dbody          1.200000e+00
	m.xtop.xinst.mmp2#gate           1.016754e+00
	m.xtop.xinst.mmp3#sbody          1.200000e+00
	m.xtop.xinst.mmp3#body           1.200000e+00
	m.xtop.xinst.mmp3#dbody          1.200000e+00
	m.xtop.xinst.mmp3#gate           6.478260e-01
	m.xtop.xinst.mmn1#sbody          5.205351e-01
	m.xtop.xinst.mmn1#body           5.205351e-01
	m.xtop.xinst.mmn1#dbody          5.205351e-01
	m.xtop.xinst.mmn1#gate           5.500000e-01
	m.xtop.xinst.mmn2#sbody          5.205351e-01
	m.xtop.xinst.mmn2#body           5.205351e-01
	m.xtop.xinst.mmn2#dbody          5.205351e-01
	m.xtop.xinst.mmn2#gate           6.500000e-01
	m.xtop.xinst.mmn3#sbody          4.973287e-13
	m.xtop.xinst.mmn3#body           9.946573e-13
	m.xtop.xinst.mmn3#dbody          4.476342e-12
	m.xtop.xinst.mmn3#gate           -2.44394e-01
	m.xtop.xinst.mmn5#sbody          7.820906e-10
	m.xtop.xinst.mmn5#body           1.564181e-09
	m.xtop.xinst.mmn5#dbody          7.901800e-10
	m.xtop.xinst.mmn5#gate           -2.44393e-01
	m.xtop.xinst.mmn4#sbody          -1.19254e-10
	m.xtop.xinst.mmn4#body           -2.38507e-10
	m.xtop.xinst.mmn4#dbody          -1.07328e-09
	m.xtop.xinst.mmn4#gate           -2.44394e-01
	xtop.sig_out                     1.068588e+00
	xtop.xinst.net7                  -2.44394e-01
	xtop.xinst.net3                  5.205351e-01
	xtop.xinst.net5                  6.478260e-01
	xtop.xinst.net4                  1.016754e+00
	xtop.dcin_n                      5.500000e-01
	xtop.dcin_p                      6.500000e-01
	xtop.vdc_p                       1.200000e+00

	Source	Current
	------	-------

	v.xtop.vvdc#branch               -1.26075e-07
	v.xtop.vsig_p#branch             -3.32621e-09
	v.xtop.vsig_n#branch             2.131680e-07

 BSIM4v5 models (Berkeley Short Channel IGFET Model-4)
      model                  nmos                  pmos

     capmod                     2                     2
     diomod                     1                     1
     rdsmod                     0                     0
   trnqsmod                     0                     0
   acnqsmod                     0                     0
     mobmod                     0                     0
   rbodymod                     1                     1
   rgatemod                     1                     1
     permod                     1                     1
     geomod                     1                     1
    rgeomod                     0                     0
    fnoimod                     1                     1
    tnoimod                     0                     0
     igcmod                     1                     1
     igbmod                     1                     1
    tempmod                     0                     0
   paramchk                     1                     1
    binunit                     1                     1
    version                   4.0                   4.0
       toxe               1.4e-09               1.4e-09
       toxp                 7e-10                 7e-10
       toxm               1.4e-09               1.4e-09
     toxref               1.4e-09               1.4e-09
       dtox                     0                     0
     epsrox                   3.9                   3.9
       cdsc                0.0002              0.000258
      cdscb                     0                     0
      cdscd                     0               6.1e-08
        cit                     0                     0
    nfactor                   1.2                     2
         xj                 2e-08                 2e-08
       vsat                110000                 90000
         at                 53000                 33000
         a0                     2                   1.2
        ags                 1e-20                 1e-20
         a1                     0                     0
         a2                     1                     1
       keta                  0.04                -0.047
       nsub                 6e+16                 6e+16
       ndep               2.8e+18               2.8e+18
        nsd                 1e+20                 1e+20
       phin                     0                     0
      ngate                 5e+20                 5e+20
     gamma1                     0                     0
     gamma2                     0                     0
        vbx                     0                     0
        vbm                    -3                    -3
         xt              1.55e-07              1.55e-07
         k1                  0.35                  0.39
        kt1                 -0.37                 -0.34
       kt1l                     0                     0
        kt2                -0.042                -0.052
         k2                  0.05                  0.05
         k3                     0                     0
        k3b                     0                     0
         w0               2.5e-06               2.5e-06
      dvtp0                 1e-07                 5e-09
      dvtp1                  0.05                  0.05
       lpe0              5.75e-08              5.75e-08
       lpeb               2.3e-10               2.3e-10
       dvt0                   2.8                   3.9
       dvt1                  0.52                 0.635
       dvt2                -0.032                -0.032
      dvt0w                     0                     0
      dvt1w                     0                     0
      dvt2w                     0                     0
      drout                  0.45                  0.56
       dsub                     2                   0.7
       vth0                  0.22                 -0.22
         ua               1.6e-10               1.6e-09
        ua1                 1e-09                -1e-09
         ub               1.1e-17                 8e-18
        ub1              -3.5e-19                 2e-18
         uc                -3e-11               4.6e-13
        uc1                     0                     0
         ud                 1e+14                 1e+14
        ud1                     0                     0
         up                     0                     0
         lp                 1e-08                 1e-08
         u0                 0.032                0.0095
         eu                  1.67                     1
        ute                  -1.5                  -1.5
       voff                 -0.15                 -0.15
       minv                  0.05                  0.05
      voffl                     0                     0
       tnom                300.15                300.15
       cgso             6.238e-10              7.43e-10
       cgdo             6.238e-10              7.43e-10
       cgbo              2.56e-11              2.56e-11
      xpart                     0                     0
      delta                  0.01                 0.014
        rsh                     3                     3
       rdsw                   150                   250
    rdswmin                     0                     0
        rsw                   150                   160
        rdw                   150                   160
     rdwmin                     0                     0
     rswmin                     0                     0
       prwg                     0              3.22e-08
       prwb               6.8e-11               6.8e-11
        prt                     0                     0
       eta0                  0.15                  0.15
       etab                     0                     0
       pclm                  0.18                  0.55
    pdiblc1                 0.028                  0.03
    pdiblc2                 0.022                0.0055
    pdiblcb                -0.005               3.4e-08
     fprout                   0.2                   0.2
      pdits                   0.2                   0.2
     pditsl               2.3e+06               2.3e+06
     pditsd                  0.23                  0.23
     pscbe1              8.14e+08              8.14e+08
     pscbe2                 1e-07              9.58e-07
       pvag                 1e-20                 1e-20
        jss                0.0001                0.0001
       jsws                 1e-11                 1e-11
      jswgs                 1e-10                 1e-10
        pbs                     1                     1
        njs                     1                     1
       xtis                     3                     3
        mjs                   0.5                   0.5
      pbsws                     1                     1
      mjsws                  0.33                  0.33
     pbswgs                     1                     1
     mjswgs                  0.33                  0.33
        cjs                0.0005                0.0005
      cjsws                 5e-10                 5e-10
     cjswgs                 3e-10                 3e-10
        jsd                0.0001                0.0001
       jswd                 1e-11                 1e-11
      jswgd                 1e-10                 1e-10
        pbd                     1                     1
        njd                     1                     1
       xtid                     3                     3
        mjd                   0.5                   0.5
      pbswd                     1                     1
      mjswd                  0.33                  0.33
     pbswgd                     1                     1
     mjswgd                  0.33                  0.33
        cjd                0.0005                0.0005
      cjswd                 5e-10                 5e-10
     cjswgd                 5e-10                 5e-10
      vfbcv                    -1                    -1
        vfb                 -0.55                  0.55
        tpb                 0.005                 0.005
        tcj                 0.001                 0.001
      tpbsw                 0.005                 0.005
      tcjsw                 0.001                 0.001
     tpbswg                 0.005                 0.005
     tcjswg                 0.001                 0.001
       acde                     1                     1
       moin                    15                    15
       noff                   0.9                   0.9
     voffcv                  0.02                  0.02
       dmcg                     0                 5e-06
       dmci                     0                 5e-06
       dmdg                     0                 5e-06
      dmcgt                     0                 6e-07
        xgw                     0                 3e-07
        xgl                     0                 4e-08
       rshg                   0.4                   0.4
      ngcon                     1                     1
     xrcrg1                    12                    12
     xrcrg2                     5                     5
     lambda                     0                     0
        vtl                200000                200000
         lc                 5e-09                 5e-09
         xn                     3                     3
   vfbsdoff                     0                     0
  tvfbsdoff                     0                     0
      tvoff                     0                     0
    lintnoi <<NAN, error = 7>> <<NAN, error = 7>>
       lint               1.2e-08               1.2e-08
         ll                     0                     0
        llc                     0                     0
        lln                     1                     1
         lw                     0                     0
        lwc                     0                     0
        lwn                     1                     1
        lwl                     0                     0
       lwlc                     0                     0
       lmin                     0                     0
       lmax                     1                     1
         wr                     1                     1
       wint                 5e-09                 5e-09
        dwg                     0                     0
        dwb                     0                     0
         wl                     0                     0
        wlc                     0                     0
        wln                     1                     1
         ww                     0                     0
        wwc                     0                     0
        wwn                     1                     1
        wwl                     0                     0
       wwlc                     0                     0
       wmin                     0                     0
       wmax                     1                     1
         b0                -1e-20                -1e-20
         b1                     0                     0
       cgsl             2.495e-10                 1e-14
       cgdl             2.495e-10                 1e-14
    ckappas                  0.01                   0.5
    ckappad                  0.01                   0.5
         cf           1.24392e-10           1.24392e-10
        clc                 1e-07                 1e-07
        cle                   0.6                   0.6
        dwc                 5e-09                 5e-09
        dlc               1.2e-08               1.2e-08
         xw                     0                     0
         xl                     0                     0
      dlcig               1.2e-08               1.2e-08
        dwj                     0                     0
     alpha0                 0.074                 0.074
     alpha1                 0.005                 0.005
      beta0                    30                    30
      agidl                0.0002                0.0002
      bgidl               2.1e+09               2.1e+09
      cgidl                0.0002                0.0002
      egidl                   0.8                   0.8
       aigc                 0.012                  0.69
       bigc                0.0028                0.0012
       cigc                 0.002                0.0008
      aigsd                 0.012                0.0087
      bigsd                0.0028                0.0012
      cigsd                 0.002                0.0008
    aigbacc                 0.012                 0.012
    bigbacc                0.0028                0.0028
    cigbacc                 0.002                 0.002
    aigbinv                 0.014                 0.014
    bigbinv                 0.004                 0.004
    cigbinv                 0.004                 0.004
       nigc                     1                     1
    nigbinv                     3                     3
    nigbacc                     1                     1
       ntox                     1                     1
    eigbinv                   1.1                   1.1
      pigcd                     1                     1
    poxedge                     1                     1
   ijthdfwd                  0.01                  0.01
   ijthsfwd                  0.01                  0.01
   ijthdrev                 0.001                 0.001
   ijthsrev                 0.001                 0.001
      xjbvd                     1                     1
      xjbvs                     1                     1
        bvd                    10                    10
        bvs                    10                    10
       jtss                     0                     0
       jtsd                     0                     0
     jtssws                     0                     0
     jtsswd                     0                     0
    jtsswgs                     0                     0
    jtsswgd                     0                     0
       njts                    20                    20
     njtssw                    20                    20
    njtsswg                    20                    20
       xtss                  0.02                  0.02
       xtsd                  0.02                  0.02
     xtssws                  0.02                  0.02
     xtsswd                  0.02                  0.02
    xtsswgs                  0.02                  0.02
    xtsswgd                  0.02                  0.02
      tnjts                     0                     0
    tnjtssw                     0                     0
   tnjtsswg                     0                     0
       vtss                    10                    10
       vtsd                    10                    10
     vtssws                    10                    10
     vtsswd                    10                    10
    vtsswgs                    10                    10
    vtsswgd                    10                    10
      gbmin                 1e-10                 1e-10
       rbdb                    15                    15
       rbpb                     5                     5
       rbsb                    15                    15
       rbps                    15                    15
       rbpd                    15                    15
      rbps0                    50                    50
      rbpsl                     0                     0
      rbpsw                     0                     0
     rbpsnf                     0                     0
      rbpd0                    50                    50
      rbpdl                     0                     0
      rbpdw                     0                     0
     rbpdnf                     0                     0
     rbpbx0                   100                   100
     rbpbxl                     0                     0
     rbpbxw                     0                     0
    rbpbxnf                     0                     0
     rbpby0                   100                   100
     rbpbyl                     0                     0
     rbpbyw                     0                     0
    rbpbynf                     0                     0
     rbsbx0                   100                   100
     rbsby0                   100                   100
     rbdbx0                   100                   100
     rbdby0                   100                   100
    rbsdbxl                     0                     0
    rbsdbxw                     0                     0
   rbsdbxnf                     0                     0
    rbsdbyl                     0                     0
    rbsdbyw                     0                     0
   rbsdbynf                     0                     0
      lcdsc                     0                     0
     lcdscb                     0                     0
     lcdscd                     0                     0
       lcit                     0                     0
   lnfactor                     0                     0
        lxj                     0                     0
      lvsat                     0                     0
        lat                     0                     0
        la0                     0                     0
       lags                     0                     0
        la1                     0                     0
        la2                     0                     0
      lketa                     0                     0
      lnsub                     0                     0
      lndep                     0                     0
       lnsd                     0                     0
      lphin                     0                     0
     lngate                     0                     0
    lgamma1                     0                     0
    lgamma2                     0                     0
       lvbx                     0                     0
       lvbm                     0                     0
        lxt                     0                     0
        lk1                     0                     0
       lkt1                     0                     0
      lkt1l                     0                     0
       lkt2                     0                     0
        lk2                     0                     0
        lk3                     0                     0
       lk3b                     0                     0
        lw0                     0                     0
     ldvtp0                     0                     0
     ldvtp1                     0                     0
      llpe0                     0                     0
      llpeb                     0                     0
      ldvt0                     0                     0
      ldvt1                     0                     0
      ldvt2                     0                     0
     ldvt0w                     0                     0
     ldvt1w                     0                     0
     ldvt2w                     0                     0
     ldrout                     0                     0
      ldsub                     0                     0
      lvth0                     0                     0
        lua                     0                     0
       lua1                     0                     0
        lub                     0                     0
       lub1                     0                     0
        luc                     0                     0
       luc1                     0                     0
        lud                     0                     0
       lud1                     0                     0
        lup                     0                     0
        llp                     0                     0
        lu0                     0                     0
       lute                     0                     0
      lvoff                     0                     0
      lminv                     0                     0
     ldelta                     0                     0
      lrdsw                     0                     0
       lrsw                     0                     0
       lrdw                     0                     0
      lprwg                     0                     0
      lprwb                     0                     0
       lprt                     0                     0
      leta0                     0                     0
      letab                    -0                    -0
      lpclm                     0                     0
   lpdiblc1                     0                     0
   lpdiblc2                     0                     0
   lpdiblcb                     0                     0
    lfprout                     0                     0
     lpdits                     0                     0
    lpditsd                     0                     0
    lpscbe1                     0                     0
    lpscbe2                     0                     0
      lpvag                     0                     0
        lwr                     0                     0
       ldwg                     0                     0
       ldwb                     0                     0
        lb0                     0                     0
        lb1                     0                     0
      lcgsl                     0                     0
      lcgdl                     0                     0
   lckappas                     0                     0
   lckappad                     0                     0
        lcf                     0                     0
       lclc                     0                     0
       lcle                     0                     0
    lalpha0                     0                     0
    lalpha1                     0                     0
     lbeta0                     0                     0
     lagidl                     0                     0
     lbgidl                     0                     0
     lcgidl                     0                     0
     legidl                     0                     0
      laigc                     0                     0
      lbigc                     0                     0
      lcigc                     0                     0
     laigsd                     0                     0
     lbigsd                     0                     0
     lcigsd                     0                     0
   laigbacc                     0                     0
   lbigbacc                     0                     0
   lcigbacc                     0                     0
   laigbinv                     0                     0
   lbigbinv                     0                     0
   lcigbinv                     0                     0
      lnigc                     0                     0
   lnigbinv                     0                     0
   lnigbacc                     0                     0
      lntox                     0                     0
   leigbinv                     0                     0
     lpigcd                     0                     0
   lpoxedge                     0                     0
     lvfbcv                     0                     0
       lvfb                     0                     0
      lacde                     0                     0
      lmoin                     0                     0
      lnoff                     0                     0
    lvoffcv                     0                     0
    lxrcrg1                     0                     0
    lxrcrg2                     0                     0
    llambda <<NAN, error = 7>> <<NAN, error = 7>>
       lvtl <<NAN, error = 7>> <<NAN, error = 7>>
        lxn <<NAN, error = 7>> <<NAN, error = 7>>
        leu                     0                     0
  lvfbsdoff                     0                     0
 ltvfbsdoff                     0                     0
     ltvoff                     0                     0
      wcdsc                     0                     0
     wcdscb                     0                     0
     wcdscd                     0                     0
       wcit                     0                     0
   wnfactor                     0                     0
        wxj                     0                     0
      wvsat                     0                     0
        wat                     0                     0
        wa0                     0                     0
       wags                     0                     0
        wa1                     0                     0
        wa2                     0                     0
      wketa                     0                     0
      wnsub                     0                     0
      wndep                     0                     0
       wnsd                     0                     0
      wphin                     0                     0
     wngate                     0                     0
    wgamma1                     0                     0
    wgamma2                     0                     0
       wvbx                     0                     0
       wvbm                     0                     0
        wxt                     0                     0
        wk1                     0                     0
       wkt1                     0                     0
      wkt1l                     0                     0
       wkt2                     0                     0
        wk2                     0                     0
        wk3                     0                     0
       wk3b                     0                     0
        ww0                     0                     0
     wdvtp0                     0                     0
     wdvtp1                     0                     0
      wlpe0                     0                     0
      wlpeb                     0                     0
      wdvt0                     0                     0
      wdvt1                     0                     0
      wdvt2                     0                     0
     wdvt0w                     0                     0
     wdvt1w                     0                     0
     wdvt2w                     0                     0
     wdrout                     0                     0
      wdsub                     0                     0
      wvth0                     0                     0
        wua                     0                     0
       wua1                     0                     0
        wub                     0                     0
       wub1                     0                     0
        wuc                     0                     0
       wuc1                     0                     0
        wud                     0                     0
       wud1                     0                     0
        wup                     0                     0
        wlp                     0                     0
        wu0                     0                     0
       wute                     0                     0
      wvoff                     0                     0
      wminv                     0                     0
     wdelta                     0                     0
      wrdsw                     0                     0
       wrsw                     0                     0
       wrdw                     0                     0
      wprwg                     0                     0
      wprwb                     0                     0
       wprt                     0                     0
      weta0                     0                     0
      wetab                     0                     0
      wpclm                     0                     0
   wpdiblc1                     0                     0
   wpdiblc2                     0                     0
   wpdiblcb                     0                     0
    wfprout                     0                     0
     wpdits                     0                     0
    wpditsd                     0                     0
    wpscbe1                     0                     0
    wpscbe2                     0                     0
      wpvag                     0                     0
        wwr                     0                     0
       wdwg                     0                     0
       wdwb                     0                     0
        wb0                     0                     0
        wb1                     0                     0
      wcgsl                     0                     0
      wcgdl                     0                     0
   wckappas                     0                     0
   wckappad                     0                     0
        wcf                     0                     0
       wclc                     0                     0
       wcle                     0                     0
    walpha0                     0                     0
    walpha1                     0                     0
     wbeta0                     0                     0
     wagidl                     0                     0
     wbgidl                     0                     0
     wcgidl                     0                     0
     wegidl                     0                     0
      waigc                     0                     0
      wbigc                     0                     0
      wcigc                     0                     0
     waigsd                     0                     0
     wbigsd                     0                     0
     wcigsd                     0                     0
   waigbacc                     0                     0
   wbigbacc                     0                     0
   wcigbacc                     0                     0
   waigbinv                     0                     0
   wbigbinv                     0                     0
   wcigbinv                     0                     0
      wnigc                     0                     0
   wnigbinv                     0                     0
   wnigbacc                     0                     0
      wntox                     0                     0
   weigbinv                     0                     0
     wpigcd                     0                     0
   wpoxedge                     0                     0
     wvfbcv                     0                     0
       wvfb                     0                     0
      wacde                     0                     0
      wmoin                     0                     0
      wnoff                     0                     0
    wvoffcv                     0                     0
    wxrcrg1                     0                     0
    wxrcrg2                     0                     0
    wlambda <<NAN, error = 7>> <<NAN, error = 7>>
       wvtl <<NAN, error = 7>> <<NAN, error = 7>>
        wxn <<NAN, error = 7>> <<NAN, error = 7>>
        weu                     0                     0
  wvfbsdoff                     0                     0
 wtvfbsdoff                     0                     0
     wtvoff                     0                     0
      pcdsc                     0                     0
     pcdscb                     0                     0
     pcdscd                     0                     0
       pcit                     0                     0
   pnfactor                     0                     0
        pxj                     0                     0
      pvsat                     0                     0
        pat                     0                     0
        pa0                     0                     0
       pags                     0                     0
        pa1                     0                     0
        pa2                     0                     0
      pketa                     0                     0
      pnsub                     0                     0
      pndep                     0                     0
       pnsd                     0                     0
      pphin                     0                     0
     pngate                     0                     0
    pgamma1                     0                     0
    pgamma2                     0                     0
       pvbx                     0                     0
       pvbm                     0                     0
        pxt                     0                     0
        pk1                     0                     0
       pkt1                     0                     0
      pkt1l                     0                     0
       pkt2                     0                     0
        pk2                     0                     0
        pk3                     0                     0
       pk3b                     0                     0
        pw0                     0                     0
     pdvtp0                     0                     0
     pdvtp1                     0                     0
      plpe0                     0                     0
      plpeb                     0                     0
      pdvt0                     0                     0
      pdvt1                     0                     0
      pdvt2                     0                     0
     pdvt0w                     0                     0
     pdvt1w                     0                     0
     pdvt2w                     0                     0
     pdrout                     0                     0
      pdsub                     0                     0
      pvth0                     0                     0
        pua                     0                     0
       pua1                     0                     0
        pub                     0                     0
       pub1                     0                     0
        puc                     0                     0
       puc1                     0                     0
        pud                     0                     0
       pud1                     0                     0
        pup                     0                     0
        plp                     0                     0
        pu0                     0                     0
       pute                     0                     0
      pvoff                     0                     0
      pminv                     0                     0
     pdelta                     0                     0
      prdsw                     0                     0
       prsw                     0                     0
       prdw                     0                     0
      pprwg                     0                     0
      pprwb                     0                     0
       pprt                     0                     0
      peta0                     0                     0
      petab                     0                     0
      ppclm                     0                     0
   ppdiblc1                     0                     0
   ppdiblc2                     0                     0
   ppdiblcb                     0                     0
    pfprout                     0                     0
     ppdits                     0                     0
    ppditsd                     0                     0
    ppscbe1                     0                     0
    ppscbe2                     0                     0
      ppvag                     0                     0
        pwr                     0                     0
       pdwg                     0                     0
       pdwb                     0                     0
        pb0                     0                     0
        pb1                     0                     0
      pcgsl                     0                     0
      pcgdl                     0                     0
   pckappas                     0                     0
   pckappad                     0                     0
        pcf                     0                     0
       pclc                     0                     0
       pcle                     0                     0
    palpha0                     0                     0
    palpha1                     0                     0
     pbeta0                     0                     0
     pagidl                     0                     0
     pbgidl                     0                     0
     pcgidl                     0                     0
     pegidl                     0                     0
      paigc                     0                     0
      pbigc                     0                     0
      pcigc                     0                     0
     paigsd                     0                     0
     pbigsd                     0                     0
     pcigsd                     0                     0
   paigbacc                     0                     0
   pbigbacc                     0                     0
   pcigbacc                     0                     0
   paigbinv                     0                     0
   pbigbinv                     0                     0
   pcigbinv                     0                     0
      pnigc                     0                     0
   pnigbinv                     0                     0
   pnigbacc                     0                     0
      pntox                     0                     0
   peigbinv                     0                     0
     ppigcd                     0                     0
   ppoxedge                     0                     0
     pvfbcv                     0                     0
       pvfb                     0                     0
      pacde                     0                     0
      pmoin                     0                     0
      pnoff                     0                     0
    pvoffcv                     0                     0
    pxrcrg1                     0                     0
    pxrcrg2                     0                     0
    plambda <<NAN, error = 7>> <<NAN, error = 7>>
       pvtl <<NAN, error = 7>> <<NAN, error = 7>>
        pxn <<NAN, error = 7>> <<NAN, error = 7>>
        peu                     0                     0
  pvfbsdoff                     0                     0
 ptvfbsdoff                     0                     0
     ptvoff                     0                     0
      saref                 1e-06                 1e-06
      sbref                 1e-06                 1e-06
       wlod                     0                     0
        ku0                     0                     0
      kvsat                     0                     0
      kvth0                     0                     0
       tku0                     0                     0
    llodku0                     0                     0
    wlodku0                     0                     0
    llodvth                     0                     0
    wlodvth                     0                     0
       lku0                     0                     0
       wku0                     0                     0
       pku0                     0                     0
     lkvth0                     0                     0
     wkvth0                     0                     0
     pkvth0                     0                     0
       stk2                     0                     0
      lodk2                     1                     1
     steta0                     0                     0
    lodeta0                     1                     1
        web                     0                     0
        wec                     0                     0
    kvth0we                     0                     0
       k2we                     0                     0
      ku0we                     0                     0
      scref                 1e-06                 1e-06
     wpemod                     0                     0
   lkvth0we                     0                     0
      lk2we                     0                     0
     lku0we                     0                     0
   wkvth0we                     0                     0
      wk2we                     0                     0
     wku0we                     0                     0
   pkvth0we                     0                     0
      pk2we                     0                     0
     pku0we                     0                     0
       noia              6.25e+41             6.188e+40
       noib             3.125e+26               1.5e+25
       noic              8.75e+09              8.75e+09
      tnoia                   1.5                   1.5
      tnoib                   3.5                   3.5
      rnoia                 0.577                 0.577
      rnoib                0.5164                0.5164
      ntnoi                     1                     1
         em               4.1e+07               4.1e+07
         ef                     1                     1
         af                     1                     1
         kf                     0                     0
    vgs_max                 1e+99                 1e+99
    vgd_max                 1e+99                 1e+99
    vgb_max                 1e+99                 1e+99
    vds_max                 1e+99                 1e+99
    vbs_max                 1e+99                 1e+99
    vbd_max                 1e+99                 1e+99
   vgsr_max                 1e+99                 1e+99
   vgdr_max                 1e+99                 1e+99
   vgbr_max                 1e+99                 1e+99
   vbsr_max                 1e+99                 1e+99
   vbdr_max                 1e+99                 1e+99

 Capacitor models (Fixed capacitor)
      model                     C

        cap                     0
         cj                     0
       cjsw                     0
       defw                 1e-05
       defl                     0
     narrow                     0
      short                     0
        del                     0
        tc1                     0
        tc2                     0
         di                     0
      thick                     0
     bv_max                 1e+99

 BSIM4v5: Berkeley Short Channel IGFET Model-4
     device     m.xtop.xinst.mmn4     m.xtop.xinst.mmn5     m.xtop.xinst.mmn3
      model                  nmos                  nmos                  nmos
          l                 9e-08                 9e-08                 9e-08
          w                 5e-07                 5e-07                 5e-07
          m                    20                    60                     9
         nf                     1                     1                     1
         sa                     0                     0                     0
         sb                     0                     0                     0
         sd                     0                     0                     0
        sca                     0                     0                     0
        scb                     0                     0                     0
        scc                     0                     0                     0
         sc                     0                     0                     0
        min                     0                     0                     0
         ad                     0                     0                     0
         as                     0                     0                     0
         pd                     0                     0                     0
         ps                     0                     0                     0
        nrd                     1                     1                     1
        nrs                     1                     1                     1
        off                     0                     0                     0
       rbdb                    15                    15                    15
       rbsb                    15                    15                    15
       rbpb                     5                     5                     5
       rbps                    15                    15                    15
       rbpd                    15                    15                    15
     delvto                     0                     0                     0
        xgw                     0                     0                     0
      ngcon                     1                     1                     1
   trnqsmod                     0                     0                     0
   acnqsmod                     0                     0                     0
   rbodymod                     1                     1                     1
   rgatemod                     1                     1                     1
     geomod                     1                     1                     1
    rgeomod                     0                     0                     0
       gmbs           2.55889e-07           9.72393e-11           1.01622e-11
         gm           8.41395e-07           3.33965e-10           3.48931e-11
        gds           2.81952e-08           6.24646e-12           8.64741e-13
      vdsat             0.0379797             0.0392127             0.0392138
        vth              0.317725              0.372772              0.373097
         id           2.90813e-08           1.07872e-11           1.12706e-12
        ibd           2.54408e-09          -6.47153e-11          -4.77482e-12
        ibs          -2.39014e-21           4.70252e-20           4.48548e-24
        gbd           9.82016e-08                 6e-11                 9e-12
        gbs           2.00425e-11           6.01276e-11           9.01914e-12
       isub           1.16326e-17           2.76983e-18           1.04418e-21
      igidl                     0           2.49945e-08                     0
      igisl                     0                     0                     0
        igs          -1.73523e-08          -5.20567e-08          -7.80853e-09
        igd           3.37004e-18          -2.95789e-05          -3.12276e-07
        igb          -5.11863e-16          -1.53513e-15          -2.30269e-16
       igcs           1.94686e-21          -1.74726e-16          -2.62126e-17
       igcd           1.92661e-21          -1.72745e-16          -2.59193e-17
        vbs          -2.38507e-10           1.56418e-09           9.94657e-13
        vgs             -0.244394             -0.244393             -0.244394
        vds             -0.244394               1.06859              0.520535
        cgg           5.42707e-15           1.62868e-14           2.44302e-15
        cgs          -1.29161e-17          -1.97081e-17          -2.95621e-18
        cgd           2.67302e-23           5.26313e-27            7.3324e-28
        cbg          -5.42692e-15          -1.62868e-14          -2.44302e-15
        cbd          -1.06296e-22           4.60831e-28          -4.96701e-29
        cbs            1.2723e-17           1.97081e-17           2.95621e-18
        cdg          -5.94771e-20          -4.02266e-24          -5.97858e-25
        cdd           9.67535e-23          -2.22082e-27          -1.92972e-28
        cds           7.75947e-20           5.18327e-24           7.70221e-25
        csg          -8.84604e-20          -6.03068e-24          -8.94854e-25
        csd          -1.71873e-23          -3.50315e-27          -4.90598e-28
        css           1.15561e-19           7.77081e-24           1.15303e-24
        cgb          -5.41415e-15          -1.62671e-14          -2.44006e-15
        cdb          -1.82143e-20          -1.15839e-24           -1.7217e-25
        csb          -2.70835e-20          -1.73663e-24          -2.57688e-25
        cbb           5.41419e-15           1.62671e-14           2.44006e-15
      capbd           5.40325e-15            1.1801e-14            1.9594e-15
      capbs                 8e-15               2.4e-14               3.6e-15
         qg           4.77278e-15           1.43116e-14           2.14674e-15
         qb          -4.77278e-15          -1.43116e-14          -2.14674e-15
         qd          -1.78778e-21          -1.16891e-25          -1.73727e-26
         qs          -2.65897e-21           -1.7524e-25          -2.60028e-26
       qinv            3.6752e-19           9.31287e-23           1.38432e-23
       qdef                     0                     0                     0
       gcrg                     0                     0                     0
       gtau                     0                     0                     0

 BSIM4v5: Berkeley Short Channel IGFET Model-4
     device     m.xtop.xinst.mmn2     m.xtop.xinst.mmn1     m.xtop.xinst.mmp3
      model                  nmos                  nmos                  pmos
          l                 9e-08                 9e-08                 9e-08
          w                 5e-07                 5e-07                 5e-07
          m                    38                    38                     4
         nf                     1                     1                     1
         sa                     0                     0                     0
         sb                     0                     0                     0
         sd                     0                     0                 1e-05
        sca                     0                     0                     0
        scb                     0                     0                     0
        scc                     0                     0                     0
         sc                     0                     0                     0
        min                     0                     0                     0
         ad                     0                     0                     0
         as                     0                     0                     0
         pd                     0                     0                     0
         ps                     0                     0                     0
        nrd                     1                     1                     1
        nrs                     1                     1                     1
        off                     0                     0                     0
       rbdb                    15                    15                    15
       rbsb                    15                    15                    15
       rbpb                     5                     5                     5
       rbps                    15                    15                    15
       rbpd                    15                    15                    15
     delvto                     0                     0                     0
        xgw                     0                     0                 3e-07
      ngcon                     1                     1                     1
   trnqsmod                     0                     0                     0
   acnqsmod                     0                     0                     0
   rbodymod                     1                     1                     1
   rgatemod                     1                     1                     1
     geomod                     1                     1                     1
    rgeomod                     0                     0                     0
       gmbs           2.06566e-06           1.69766e-07           6.04793e-05
         gm           8.11161e-06           6.47788e-07           0.000167824
        gds           3.66952e-07           1.67048e-08           0.000124306
      vdsat             0.0393895             0.0392232              0.205384
        vth              0.373333              0.373111              0.352709
         id           2.87551e-07           2.14328e-08           2.96049e-05
        ibd          -5.21428e-12          -1.92363e-11          -5.27071e-13
        ibs           4.90004e-24           1.80655e-23           7.31956e-25
        gbd           3.81071e-11               3.8e-11           4.00034e-12
        gbs           3.80808e-11           3.80808e-11           4.11027e-12
       isub           5.07106e-17           1.88565e-17           9.92808e-16
      igidl                     0                     0                     0
      igisl                     0                     0                     0
        igs           3.03997e-09           9.98214e-11            2.1191e-09
        igd           2.04666e-11          -2.13269e-07           9.28318e-10
        igb           1.79872e-15           2.98765e-16           1.14683e-13
       igcs           1.33563e-10           6.13663e-13           3.42422e-18
       igcd           1.32208e-10           6.06804e-13            3.2986e-18
        vbs           2.57461e-13            9.4913e-13           3.55938e-13
        vgs              0.129465             0.0294649              0.552174
        vds              0.127291              0.496219              0.131412
        cgg            7.9495e-15           8.42273e-15           3.88242e-15
        cgs          -1.25816e-17          -1.02867e-17          -3.76997e-15
        cgd          -3.48608e-21            4.0779e-23          -6.95379e-17
        cbg          -7.94705e-15          -8.42265e-15          -8.60987e-16
        cbd          -9.56583e-21          -6.57924e-24          -1.25688e-16
        cbs           9.54081e-18           1.01885e-17           2.03883e-16
        cdg          -9.94617e-19          -3.12629e-20          -1.25776e-15
        cdd           1.05149e-20          -8.86765e-24           1.48446e-16
        cds           1.22942e-18           3.93254e-20           1.41799e-15
        csg          -1.45513e-18          -4.67839e-20          -1.76368e-15
        csd           2.53705e-21          -2.53321e-23           4.67798e-17
        css           1.81134e-18           5.88607e-20            2.1481e-15
        cgb          -7.93691e-15          -8.41244e-15            -4.292e-17
        cdb          -2.45316e-19          -8.05362e-21          -3.08672e-16
        csb          -3.58741e-19          -1.20514e-20            -4.312e-16
        cbb           7.93752e-15           8.41246e-15           7.82792e-16
      capbd            9.1317e-15           8.31716e-15            2.1994e-14
      capbs              1.52e-14              1.52e-14              4.86e-14
         qg           1.24227e-14           1.16048e-14            2.2485e-15
         qb          -1.24226e-14          -1.16048e-14          -1.79812e-15
         qd           -2.8932e-20          -9.08462e-22          -1.84831e-16
         qs          -4.23276e-20          -1.35948e-21          -2.65546e-16
       qinv           5.09749e-18           2.68125e-19           6.34001e-16
       qdef                     0                     0                    -0
       gcrg                     0                     0                     0
       gtau                     0                     0                     0

 BSIM4v5: Berkeley Short Channel IGFET Model-4
     device     m.xtop.xinst.mmp2     m.xtop.xinst.mmp1
      model                  pmos                  pmos
          l                 9e-08                 9e-08
          w                 5e-07                 5e-07
          m                    10                    10
         nf                     1                     1
         sa                     0                     0
         sb                     0                     0
         sd                 1e-05                 1e-05
        sca                     0                     0
        scb                     0                     0
        scc                     0                     0
         sc                     0                     0
        min                     0                     0
         ad                     0                     0
         as                     0                     0
         pd                     0                     0
         ps                     0                     0
        nrd                     1                     1
        nrs                     1                     1
        off                     0                     0
       rbdb                    15                    15
       rbsb                    15                    15
       rbpb                     5                     5
       rbps                    15                    15
       rbpd                    15                    15
     delvto                     0                     0
        xgw                 3e-07                 3e-07
      ngcon                     1                     1
   trnqsmod                     0                     0
   acnqsmod                     0                     0
   rbodymod                     1                     1
   rgatemod                     1                     1
     geomod                     1                     1
    rgeomod                     0                     0
       gmbs           1.89709e-06           1.59164e-06
         gm           6.60381e-06            5.5563e-06
        gds           1.14927e-07           1.48573e-07
      vdsat             0.0447259             0.0447107
        vth              0.352229               0.35265
         id           2.82008e-07           2.36585e-07
        ibd          -5.52532e-12          -1.83604e-12
        ibs           5.32539e-24           1.77057e-24
        gbd                 1e-11           1.00001e-11
        gbs           1.02757e-11           1.02757e-11
       isub           2.75645e-16           6.48009e-17
      igidl                     0                     0
      igisl                     0                     0
        igs           2.38247e-10           2.38247e-10
        igd          -2.34255e-09          -2.87447e-20
        igb           1.46549e-15           1.46507e-15
       igcs           4.90056e-20            4.9055e-20
       igcd            4.8368e-20           4.84659e-20
        vbs            1.0365e-12           3.44613e-13
        vgs              0.183246              0.183246
        vds              0.552174              0.183246
        cgg           2.23613e-15           2.23599e-15
        cgs          -2.27004e-17          -2.25083e-17
        cgd           1.69354e-20           4.41125e-22
        cbg          -2.21918e-15          -2.21912e-15
        cbd           5.39065e-23          -2.80228e-20
        cbs           9.91818e-19           9.40893e-19
        cdg          -6.78467e-18          -6.80229e-18
        cdd          -5.89956e-21           2.84645e-20
        cds           8.69268e-18           8.68215e-18
        csg          -1.01574e-17          -1.00626e-17
        csd          -1.10897e-20          -8.82783e-22
        css           1.30159e-17           1.28852e-17
        cgb          -2.21344e-15          -2.21348e-15
        cdb           -1.9021e-18          -1.90832e-18
        csb          -2.84747e-18          -2.82177e-18
        cbb           2.21819e-15           2.21821e-15
      capbd           4.90493e-14           5.41008e-14
      capbs             1.215e-13             1.215e-13
         qg           3.75206e-15           3.75206e-15
         qb          -3.75149e-15          -3.75149e-15
         qd          -2.29367e-19          -2.29897e-19
         qs          -3.43387e-19          -3.40086e-19
       qinv           1.17155e-17           1.16929e-17
       qdef                    -0                    -0
       gcrg                     0                     0
       gtau                     0                     0

 Capacitor: Fixed capacitor
     device      c.xtop.xinst.ccc      c.xtop.xinst.ccl
      model                     C                     C
capacitance                 3e-12                 1e-11
      dtemp                     0                     0
     bv_max                 1e+99                 1e+99
          i                     0                     0
          p                    -0                     0

 Isource: Independent current source
     device   i.xtop.xinst.iibias
         dc                 3e-05
          m                     1
      acmag                     0
      pulse         -
        sin         -
        exp         -
        pwl         -
       sffm         -
         am         -
    trnoise         -
   trrandom         -
          v               1.44439
          p          -4.33318e-05
    current                 3e-05

 Vsource: Independent voltage source
     device         v.xtop.vsig_n         v.xtop.vsig_p           v.xtop.vvdc
         dc                  0.55                  0.65                   1.2
      acmag                     0                     0                     1
      pulse         -         -         -
        sin         -         -         -
        exp         -         -         -
        pwl         -         -         -
       sffm         -         -         -
         am         -         -         -
    trnoise         -         -         -
   trrandom         -         -         -
          i           2.13168e-07          -3.32621e-09          -1.26075e-07
          p           1.17242e-07          -2.16203e-09           -1.5129e-07


Total analysis time (seconds) = 0.002

Total elapsed time (seconds) = 0.012 

Total DRAM available = 32111.270 MB.
DRAM currently available = 22590.199 MB.
Maximum ngspice program size =   33.984 MB.
Current ngspice program size =   12.391 MB.

Shared ngspice pages =   10.324 MB.
Text (code) pages =    5.207 MB.
Stack = 0 bytes.
Library pages =   10.473 MB.

